<?xml version="1.0" encoding="UTF-8"?>

<configuration xmlns:xsi="http://www.w3.org/2001/XMLSchema-instance" xsi:noNamespaceSchemaLocation="http://sumo.dlr.de/xsd/sumoConfiguration.xsd">

    <input>
        <net-file value="BAH0_smart.net.xml"/>
        <route-files value="BAH21600_smart.rou.xml"/>
    </input>

    <time>
        <begin value="0" />
     	<end value="500" />
    </time>

    <processing>
        <time-to-teleport value="-1"/>
    </processing>

</configuration>
