<?xml version="1.0" encoding="UTF-8"?>

<!-- generated on 2018. máj. 13., vasárnap, 10:22:39 CEST by Netedit Version 0.30.0
<?xml version="1.0" encoding="UTF-8"?>

<configuration xmlns:xsi="http://www.w3.org/2001/XMLSchema-instance" xsi:noNamespaceSchemaLocation="http://sumo.dlr.de/xsd/netconvertConfiguration.xsd">

    <input>
        <sumo-net-file value="/home/levente/Egyetem/6_felev/onlab/terkep/peldatomkoz.net.xml"/>
    </input>

    <output>
        <output-file value="/home/levente/Egyetem/6_felev/onlab/BAH/sima.net.xml"/>
    </output>

    <processing>
        <no-turnarounds value="true"/>
        <offset.disable-normalization value="true"/>
        <lefthand value="false"/>
        <junctions.corner-detail value="0"/>
        <rectangular-lane-cut value="false"/>
    </processing>

</configuration>
-->

<net version="0.27" xmlns:xsi="http://www.w3.org/2001/XMLSchema-instance" xsi:noNamespaceSchemaLocation="http://sumo.dlr.de/xsd/net_file.xsd">

    <location netOffset="-350103.16,-5259759.21" convBoundary="0.00,0.00,2512.54,2281.08" origBoundary="18.999424,47.471201,19.045565,47.498737" projParameter="+proj=utm +zone=34 +ellps=WGS84 +datum=WGS84 +units=m +no_defs"/>

    <type id="highway.motorway" speed="27.78"/>
    <type id="highway.motorway_link" speed="16.67"/>
    <type id="highway.primary" speed="13.89"/>
    <type id="highway.primary_link" speed="13.89"/>
    <type id="highway.secondary" speed="13.89"/>
    <type id="highway.secondary_link" speed="13.89"/>
    <type id="highway.tertiary" speed="13.89"/>
    <type id="highway.tertiary_link" speed="13.89"/>
    <type id="highway.trunk" speed="13.89"/>
    <type id="highway.trunk_link" speed="13.89"/>

    <edge id=":1031047959_0" function="internal">
        <lane id=":1031047959_0_0" index="0" speed="13.89" length="0.10" shape="1215.07,587.96 1215.10,588.05"/>
        <lane id=":1031047959_0_1" index="1" speed="13.89" length="0.10" shape="1211.93,588.96 1211.90,588.87"/>
    </edge>
    <edge id=":1031047995_0" function="internal">
        <lane id=":1031047995_0_0" index="0" speed="13.89" length="0.29" shape="1188.82,524.91 1188.95,525.15"/>
        <lane id=":1031047995_0_1" index="1" speed="13.89" length="0.29" shape="1185.88,526.41 1186.03,526.69"/>
    </edge>
    <edge id=":1244421446_0" function="internal">
        <lane id=":1244421446_0_0" index="0" speed="13.89" length="1.78" shape="1476.29,926.75 1476.25,927.00 1476.24,927.18 1476.28,927.36 1476.36,927.60"/>
        <lane id=":1244421446_0_1" index="1" speed="13.89" length="1.78" shape="1473.05,926.12 1472.92,926.90 1472.89,927.45 1473.00,927.99 1473.26,928.74"/>
    </edge>
    <edge id=":16729618_0" function="internal">
        <lane id=":16729618_0_0" index="0" speed="13.89" length="0.25" shape="1192.30,531.51 1192.44,531.80"/>
        <lane id=":16729618_0_1" index="1" speed="13.89" length="0.25" shape="1189.38,533.05 1189.46,533.21"/>
    </edge>
    <edge id=":16729625_0" function="internal">
        <lane id=":16729625_0_0" index="0" speed="13.89" length="0.10" shape="1195.62,1155.41 1195.56,1155.48"/>
        <lane id=":16729625_0_1" index="1" speed="13.89" length="0.10" shape="1193.00,1153.39 1193.06,1153.32"/>
    </edge>
    <edge id=":16729626_0" function="internal">
        <lane id=":16729626_0_0" index="0" speed="13.89" length="0.25" shape="1253.38,1099.05 1253.28,1099.12"/>
        <lane id=":16729626_0_1" index="1" speed="13.89" length="0.25" shape="1251.82,1096.15 1251.49,1096.34"/>
    </edge>
    <edge id=":1676318007_0" function="internal">
        <lane id=":1676318007_0_0" index="0" allow="bus bicycle" speed="13.89" length="3.53" shape="1910.64,1658.62 1911.61,1658.82 1912.37,1658.56 1913.12,1658.32 1914.08,1658.53"/>
        <lane id=":1676318007_0_1" index="1" speed="13.89" length="3.53" shape="1910.64,1658.62 1911.37,1659.27 1911.60,1660.02 1911.82,1660.78 1912.55,1661.45"/>
        <lane id=":1676318007_0_2" index="2" speed="13.89" length="3.53" shape="1909.16,1661.57 1909.88,1662.22 1910.09,1662.96 1910.30,1663.71 1911.01,1664.37"/>
    </edge>
    <edge id=":1676318032_0" function="internal">
        <lane id=":1676318032_0_0" index="0" speed="13.89" length="3.49" shape="1981.81,1714.30 1980.01,1711.45"/>
        <lane id=":1676318032_0_1" index="1" speed="13.89" length="3.49" shape="1983.41,1711.41 1982.46,1711.18 1981.71,1711.42 1980.97,1711.67 1980.01,1711.45"/>
        <lane id=":1676318032_0_2" index="2" speed="13.89" length="3.49" shape="1985.00,1708.52 1984.04,1708.29 1983.28,1708.52 1982.52,1708.75 1981.55,1708.53"/>
    </edge>
    <edge id=":1686008392_0" function="internal">
        <lane id=":1686008392_0_0" index="0" speed="13.89" length="0.25" shape="1742.49,1601.45 1742.19,1601.41"/>
        <lane id=":1686008392_0_1" index="1" speed="13.89" length="0.25" shape="1742.88,1598.18 1742.68,1598.15"/>
    </edge>
    <edge id=":1740676620_0" function="internal">
        <lane id=":1740676620_0_0" index="0" allow="bus" speed="13.89" length="3.46" shape="1603.64,1579.42 1600.09,1582.15"/>
        <lane id=":1740676620_0_1" index="1" speed="13.89" length="3.46" shape="1603.64,1579.42 1600.69,1578.91"/>
        <lane id=":1740676620_0_2" index="2" speed="13.89" length="3.46" shape="1604.16,1576.17 1601.30,1575.67"/>
    </edge>
    <edge id=":1770588017_0" function="internal">
        <lane id=":1770588017_0_0" index="0" allow="bus" speed="13.89" length="6.12" shape="1035.13,1467.02 1030.08,1463.70"/>
        <lane id=":1770588017_0_1" index="1" speed="13.89" length="6.12" shape="1036.97,1464.28 1031.85,1460.92"/>
        <lane id=":1770588017_0_2" index="2" speed="13.89" length="6.12" shape="1038.80,1461.53 1033.62,1458.13"/>
    </edge>
    <edge id=":1770588017_3" function="internal">
        <lane id=":1770588017_3_0" index="0" speed="13.89" length="6.73" shape="1037.82,1456.87 1036.42,1459.41 1034.96,1460.93 1033.43,1461.43 1031.85,1460.92"/>
        <lane id=":1770588017_3_1" index="1" speed="13.89" length="6.73" shape="1037.82,1456.87 1037.04,1458.09 1036.08,1458.71 1034.94,1458.72 1033.62,1458.13"/>
    </edge>
    <edge id=":1812612005_0" function="internal">
        <lane id=":1812612005_0_0" index="0" speed="13.89" length="0.33" shape="1154.20,451.89 1154.27,452.02 1154.32,452.11 1154.37,452.20 1154.43,452.33"/>
        <lane id=":1812612005_0_1" index="1" speed="13.89" length="0.33" shape="1151.35,453.57 1151.38,453.61 1151.40,453.64 1151.41,453.67 1151.43,453.71"/>
    </edge>
    <edge id=":1812612006_0" function="internal">
        <lane id=":1812612006_0_0" index="0" speed="13.89" length="0.25" shape="1178.44,504.60 1178.52,504.76"/>
        <lane id=":1812612006_0_1" index="1" speed="13.89" length="0.25" shape="1175.44,505.98 1175.58,506.26"/>
    </edge>
    <edge id=":1812612017_0" function="internal">
        <lane id=":1812612017_0_0" index="0" speed="13.89" length="0.24" shape="1183.88,547.68 1183.81,547.51"/>
        <lane id=":1812612017_0_1" index="1" speed="13.89" length="0.24" shape="1186.93,546.42 1186.81,546.15"/>
    </edge>
    <edge id=":1812770577_0" function="internal">
        <lane id=":1812770577_0_0" index="0" allow="bus" speed="13.89" length="0.58" shape="1112.28,1736.06 1112.26,1736.84"/>
        <lane id=":1812770577_0_1" index="1" speed="13.89" length="0.58" shape="1108.98,1736.06 1108.97,1736.71"/>
        <lane id=":1812770577_0_2" index="2" speed="13.89" length="0.58" shape="1105.68,1736.06 1105.67,1736.57"/>
        <lane id=":1812770577_0_3" index="3" speed="13.89" length="0.58" shape="1102.38,1736.06 1102.37,1736.43"/>
    </edge>
    <edge id=":1812770605_0" function="internal">
        <lane id=":1812770605_0_0" index="0" speed="13.89" length="3.55" shape="1079.15,1784.45 1079.00,1783.49 1078.50,1782.89 1077.99,1782.29 1077.82,1781.33"/>
        <lane id=":1812770605_0_1" index="1" speed="13.89" length="3.55" shape="1082.43,1784.82 1082.28,1783.85 1081.78,1783.24 1081.27,1782.64 1081.11,1781.66"/>
        <lane id=":1812770605_0_2" index="2" speed="13.89" length="3.55" shape="1085.71,1785.20 1085.56,1784.21 1085.06,1783.60 1084.55,1782.98 1084.39,1781.99"/>
    </edge>
    <edge id=":1812783898_0" function="internal">
        <lane id=":1812783898_0_0" index="0" speed="13.89" length="4.22" shape="1075.35,1557.07 1071.97,1554.16"/>
        <lane id=":1812783898_0_1" index="1" speed="13.89" length="4.22" shape="1078.65,1556.98 1075.27,1554.07"/>
        <lane id=":1812783898_0_2" index="2" speed="13.89" length="4.22" shape="1081.95,1556.88 1078.57,1553.98"/>
        <lane id=":1812783898_0_3" index="3" speed="13.89" length="4.22" shape="1085.25,1556.79 1081.87,1553.88"/>
        <lane id=":1812783898_0_4" index="4" speed="13.89" length="4.22" shape="1085.25,1556.79 1085.17,1553.79"/>
        <lane id=":1812783898_0_5" index="5" speed="13.89" length="4.22" shape="1085.25,1556.79 1088.46,1553.70"/>
    </edge>
    <edge id=":1812783899_0" function="internal">
        <lane id=":1812783899_0_0" index="0" speed="13.89" length="3.49" shape="1079.34,1641.50 1079.08,1640.59 1078.50,1640.07 1077.92,1639.56 1077.64,1638.64"/>
        <lane id=":1812783899_0_1" index="1" speed="13.89" length="3.49" shape="1079.34,1641.50 1080.94,1638.55"/>
        <lane id=":1812783899_0_2" index="2" speed="13.89" length="3.49" shape="1082.64,1641.48 1082.89,1640.53 1083.45,1639.97 1084.01,1639.41 1084.24,1638.46"/>
        <lane id=":1812783899_0_3" index="3" speed="13.89" length="3.49" shape="1085.94,1641.46 1086.19,1640.48 1086.75,1639.91 1087.31,1639.33 1087.54,1638.36"/>
    </edge>
    <edge id=":1813149934_0" function="internal">
        <lane id=":1813149934_0_0" index="0" speed="13.89" length="0.29" shape="992.27,1382.09 992.51,1382.29"/>
        <lane id=":1813149934_0_1" index="1" speed="13.89" length="0.29" shape="990.11,1384.58 990.31,1384.76"/>
    </edge>
    <edge id=":2077691374_0" function="internal">
        <lane id=":2077691374_0_0" index="0" speed="13.89" length="3.48" shape="1065.29,1896.96 1065.09,1895.97 1064.56,1895.36 1064.04,1894.75 1063.87,1893.76"/>
        <lane id=":2077691374_0_1" index="1" speed="13.89" length="3.48" shape="1065.29,1896.96 1065.60,1896.02 1066.20,1895.51 1066.81,1894.99 1067.16,1894.06"/>
        <lane id=":2077691374_0_2" index="2" speed="13.89" length="3.48" shape="1068.59,1897.14 1068.90,1896.23 1069.50,1895.74 1070.10,1895.25 1070.44,1894.35"/>
        <lane id=":2077691374_0_3" index="3" speed="13.89" length="3.48" shape="1071.88,1897.32 1073.73,1894.64"/>
    </edge>
    <edge id=":245291214_0" function="internal">
        <lane id=":245291214_0_0" index="0" speed="13.89" length="4.49" shape="576.78,1251.24 573.14,1255.15"/>
        <lane id=":245291214_0_1" index="1" speed="13.89" length="4.49" shape="576.78,1251.24 575.78,1251.62 575.06,1251.82 574.32,1251.88 573.25,1251.85"/>
    </edge>
    <edge id=":263261471_0" function="internal">
        <lane id=":263261471_0_0" index="0" speed="13.89" length="0.62" shape="1111.00,1432.42 1111.00,1432.54"/>
        <lane id=":263261471_0_1" index="1" speed="13.89" length="0.62" shape="1107.70,1432.42 1107.71,1432.79"/>
        <lane id=":263261471_0_2" index="2" speed="13.89" length="0.62" shape="1104.40,1432.42 1104.42,1433.04"/>
        <lane id=":263261471_0_3" index="3" speed="13.89" length="0.62" shape="1101.10,1432.42 1101.13,1433.29"/>
        <lane id=":263261471_0_4" index="4" speed="13.89" length="0.62" shape="1097.80,1432.41 1097.84,1433.54"/>
    </edge>
    <edge id=":263261472_0" function="internal">
        <lane id=":263261472_0_0" index="0" speed="13.89" length="4.06" shape="1107.92,1361.47 1111.15,1364.02"/>
        <lane id=":263261472_0_1" index="1" speed="13.89" length="4.06" shape="1104.62,1361.28 1107.85,1364.04"/>
        <lane id=":263261472_0_2" index="2" speed="13.89" length="4.06" shape="1101.33,1361.09 1104.55,1364.07"/>
        <lane id=":263261472_0_3" index="3" speed="13.89" length="4.06" shape="1101.33,1361.09 1101.25,1364.09"/>
        <lane id=":263261472_0_4" index="4" speed="13.89" length="4.06" shape="1101.33,1361.09 1097.95,1364.11"/>
    </edge>
    <edge id=":263261819_0" function="internal">
        <lane id=":263261819_0_0" index="0" speed="13.89" length="5.21" shape="1070.47,1506.34 1070.46,1504.79 1070.46,1503.71 1070.28,1502.68 1069.74,1501.25"/>
    </edge>
    <edge id=":263261819_1" function="internal">
        <lane id=":263261819_1_0" index="0" speed="13.89" length="2.95" shape="1073.77,1506.23 1073.81,1505.35 1073.97,1504.75 1074.19,1504.16 1074.41,1503.28"/>
        <lane id=":263261819_1_1" index="1" speed="13.89" length="2.95" shape="1077.06,1506.13 1077.12,1505.26 1077.30,1504.68 1077.54,1504.10 1077.76,1503.24"/>
        <lane id=":263261819_1_2" index="2" speed="13.89" length="2.95" shape="1080.36,1506.02 1080.43,1505.17 1080.63,1504.61 1080.89,1504.05 1081.12,1503.21"/>
        <lane id=":263261819_1_3" index="3" speed="13.89" length="2.95" shape="1083.66,1505.92 1083.73,1505.08 1083.96,1504.54 1084.24,1504.00 1084.48,1503.17"/>
        <lane id=":263261819_1_4" index="4" speed="13.89" length="2.95" shape="1086.96,1505.81 1087.04,1505.00 1087.29,1504.47 1087.59,1503.94 1087.83,1503.13"/>
    </edge>
    <edge id=":263261824_0" function="internal">
        <lane id=":263261824_0_0" index="0" speed="13.89" length="0.63" shape="1169.15,1150.66 1169.28,1150.40 1169.37,1150.23 1169.47,1150.07 1169.64,1149.85"/>
        <lane id=":263261824_0_1" index="1" speed="13.89" length="0.63" shape="1172.13,1152.07 1172.17,1151.99 1172.20,1151.93 1172.24,1151.88 1172.29,1151.81"/>
    </edge>
    <edge id=":263261830_0" function="internal">
        <lane id=":263261830_0_0" index="0" speed="13.89" length="8.65" shape="1197.44,1079.77 1197.10,1081.70 1197.41,1083.64 1198.36,1085.60 1199.97,1087.57"/>
    </edge>
    <edge id=":263261830_1" function="internal">
        <lane id=":263261830_1_0" index="0" speed="13.89" length="9.12" shape="1197.44,1079.77 1196.68,1082.27 1196.38,1084.04 1196.21,1085.84 1195.88,1088.44"/>
        <lane id=":263261830_1_1" index="1" speed="13.89" length="9.12" shape="1194.32,1078.69 1193.51,1081.36 1193.17,1083.23 1192.98,1085.15 1192.62,1087.93"/>
    </edge>
    <edge id=":263271811_0" function="internal">
        <lane id=":263271811_0_0" index="0" allow="bus" speed="13.89" length="2.98" shape="1347.74,1543.76 1350.60,1544.31"/>
        <lane id=":263271811_0_1" index="1" speed="13.89" length="2.98" shape="1347.36,1547.04 1350.35,1547.60"/>
    </edge>
    <edge id=":263271811_2" function="internal">
        <lane id=":263271811_2_0" index="0" speed="13.89" length="9.40" shape="1340.73,1550.29 1350.11,1550.89"/>
    </edge>
    <edge id=":263274078_0" function="internal">
        <lane id=":263274078_0_0" index="0" speed="13.89" length="61.77" shape="1385.40,1561.40 1372.98,1561.81 1354.63,1563.23 1336.29,1564.90 1323.87,1566.02"/>
        <lane id=":263274078_0_1" index="1" speed="13.89" length="61.77" shape="1385.40,1561.40 1372.94,1561.29 1354.50,1561.59 1336.07,1562.13 1323.61,1562.73"/>
    </edge>
    <edge id=":263274078_2" function="internal">
        <lane id=":263274078_2_0" index="0" speed="13.89" length="62.05" shape="1385.57,1558.11 1323.54,1559.37"/>
    </edge>
    <edge id=":263275825_0" function="internal">
        <lane id=":263275825_0_0" index="0" speed="13.89" length="5.79" shape="1008.72,1446.24 1007.32,1445.91 1006.27,1446.59 1005.14,1447.49 1003.51,1447.82"/>
    </edge>
    <edge id=":263275825_1" function="internal">
        <lane id=":263275825_1_0" index="0" speed="13.89" length="5.16" shape="1010.49,1443.45 1009.18,1442.65 1008.29,1442.09 1007.45,1441.46 1006.32,1440.43"/>
    </edge>
    <edge id=":263276777_0" function="internal">
        <lane id=":263276777_0_0" index="0" speed="13.89" length="25.50" shape="1007.98,1394.10 1013.81,1397.98 1019.35,1398.24 1025.00,1398.40 1031.16,1401.97"/>
        <lane id=":263276777_0_1" index="1" speed="13.89" length="25.50" shape="1005.52,1396.30 1011.38,1400.22 1016.96,1400.52 1022.65,1400.71 1028.84,1404.32"/>
        <lane id=":263276777_0_2" index="2" speed="13.89" length="25.50" shape="1003.05,1398.49 1008.96,1402.46 1014.57,1402.79 1020.29,1403.02 1026.53,1406.67"/>
    </edge>
    <edge id=":263276777_3" function="internal">
        <lane id=":263276777_3_0" index="0" speed="13.89" length="25.42" shape="999.90,1405.94 1009.65,1404.38 1017.33,1403.99 1022.96,1404.75 1026.53,1406.67"/>
        <lane id=":263276777_3_1" index="1" speed="13.89" length="25.42" shape="999.90,1405.94 1008.04,1404.82 1014.80,1404.96 1020.19,1406.36 1024.21,1409.02"/>
        <lane id=":263276777_3_2" index="2" speed="13.89" length="25.42" shape="999.90,1405.94 1006.42,1405.26 1012.26,1405.94 1017.42,1407.97 1021.90,1411.37"/>
    </edge>
    <edge id=":263300995_0" function="internal">
        <lane id=":263300995_0_0" index="0" speed="13.89" length="0.54" shape="1080.19,1757.89 1080.19,1757.84 1080.20,1757.80 1080.20,1757.77 1080.20,1757.72"/>
        <lane id=":263300995_0_1" index="1" speed="13.89" length="0.54" shape="1083.47,1758.23 1083.49,1758.07 1083.50,1757.96 1083.50,1757.85 1083.50,1757.69"/>
        <lane id=":263300995_0_2" index="2" speed="13.89" length="0.54" shape="1086.76,1758.56 1086.78,1758.30 1086.80,1758.12 1086.80,1757.93 1086.80,1757.67"/>
    </edge>
    <edge id=":268258426_0" function="internal">
        <lane id=":268258426_0_0" index="0" speed="13.89" length="1.76" shape="1948.62,642.80 1948.97,641.07"/>
    </edge>
    <edge id=":268258426_3" function="internal">
        <lane id=":268258426_3_0" index="0" speed="13.89" length="8.53" shape="1948.97,641.07 1950.09,639.16 1951.97,637.06 1954.62,634.78"/>
    </edge>
    <edge id=":268258426_1" function="internal">
        <lane id=":268258426_1_0" index="0" speed="13.89" length="11.65" shape="1944.91,641.20 1947.72,639.60 1949.93,638.23 1952.06,636.74 1954.62,634.78"/>
    </edge>
    <edge id=":268258426_2" function="internal">
        <lane id=":268258426_2_0" index="0" speed="13.89" length="10.31" shape="1944.91,641.20 1948.12,639.60 1950.80,638.69 1952.97,638.46 1954.63,638.91"/>
    </edge>
    <edge id=":268282362_0" function="internal">
        <lane id=":268282362_0_0" index="0" speed="13.89" length="0.29" shape="1593.39,521.95 1593.32,522.21"/>
        <lane id=":268282362_0_1" index="1" speed="13.89" length="0.29" shape="1590.21,521.07 1590.13,521.37"/>
    </edge>
    <edge id=":268282367_0" function="internal">
        <lane id=":268282367_0_0" index="0" speed="13.89" length="6.23" shape="1579.00,576.91 1577.33,582.92"/>
        <lane id=":268282367_0_1" index="1" speed="13.89" length="6.23" shape="1575.81,576.04 1574.15,582.03"/>
    </edge>
    <edge id=":268282367_2" function="internal">
        <lane id=":268282367_2_0" index="0" speed="13.89" length="5.05" shape="1575.81,576.04 1575.27,577.28 1574.44,578.06 1573.33,578.38 1571.94,578.24"/>
    </edge>
    <edge id=":268372293_0" function="internal">
        <lane id=":268372293_0_0" index="0" speed="13.89" length="6.39" shape="1437.79,999.31 1432.18,1002.57"/>
        <lane id=":268372293_0_1" index="1" speed="13.89" length="6.39" shape="1436.06,996.50 1430.61,999.66"/>
    </edge>
    <edge id=":268372293_2" function="internal">
        <lane id=":268372293_2_0" index="0" speed="13.89" length="4.36" shape="1432.27,996.17 1432.55,997.15 1432.37,998.06 1431.72,998.90 1430.61,999.66"/>
    </edge>
    <edge id=":268386478_0" function="internal">
        <lane id=":268386478_0_0" index="0" speed="13.89" length="2.86" shape="1244.85,934.25 1246.03,937.08"/>
        <lane id=":268386478_0_1" index="1" speed="13.89" length="2.86" shape="1244.85,934.25 1242.82,936.33"/>
        <lane id=":268386478_0_2" index="2" speed="13.89" length="2.86" shape="1241.57,933.88 1239.60,935.58"/>
    </edge>
    <edge id=":268639223_0" function="internal">
        <lane id=":268639223_0_0" index="0" speed="13.89" length="0.28" shape="529.72,1253.74 529.40,1253.73"/>
        <lane id=":268639223_0_1" index="1" speed="13.89" length="0.28" shape="529.82,1250.45 529.57,1250.43"/>
    </edge>
    <edge id=":268701639_0" function="internal">
        <lane id=":268701639_0_0" index="0" speed="13.89" length="3.26" shape="1110.80,1318.02 1111.96,1320.94"/>
        <lane id=":268701639_0_1" index="1" speed="13.89" length="3.26" shape="1110.80,1318.02 1108.69,1320.46"/>
        <lane id=":268701639_0_2" index="2" speed="13.89" length="3.26" shape="1107.57,1317.34 1105.43,1319.97"/>
    </edge>
    <edge id=":268702621_0" function="internal">
        <lane id=":268702621_0_0" index="0" speed="13.89" length="0.47" shape="986.08,1422.38 985.95,1422.22 985.86,1422.10 985.78,1421.98 985.67,1421.80"/>
        <lane id=":268702621_0_1" index="1" speed="13.89" length="0.47" shape="988.64,1420.29 988.59,1420.23 988.56,1420.20 988.54,1420.16 988.50,1420.10"/>
    </edge>
    <edge id=":278946183_0" function="internal">
        <lane id=":278946183_0_0" index="0" speed="13.89" length="3.52" shape="1490.19,844.17 1490.23,843.20 1489.84,842.52 1489.45,841.83 1489.45,840.85"/>
    </edge>
    <edge id=":2954238137_0" function="internal">
        <lane id=":2954238137_0_0" index="0" speed="13.89" length="3.30" shape="1505.05,1562.07 1504.13,1558.89"/>
        <lane id=":2954238137_0_1" index="1" speed="13.89" length="3.30" shape="1504.32,1558.85 1503.55,1555.65"/>
    </edge>
    <edge id=":2960776070_0" function="internal">
        <lane id=":2960776070_0_0" index="0" speed="13.89" length="0.34" shape="1066.44,1864.89 1066.51,1864.30"/>
        <lane id=":2960776070_0_1" index="1" speed="13.89" length="0.34" shape="1069.73,1865.18 1069.78,1864.76"/>
        <lane id=":2960776070_0_2" index="2" speed="13.89" length="0.34" shape="1073.02,1865.47 1073.05,1865.22"/>
        <lane id=":2960776070_0_3" index="3" speed="13.89" length="0.34" shape="1076.31,1865.77 1076.31,1865.69"/>
    </edge>
    <edge id=":2967727753_0" function="internal">
        <lane id=":2967727753_0_0" index="0" speed="13.89" length="4.73" shape="1554.30,1569.11 1553.52,1568.67 1553.20,1568.02 1552.89,1567.33 1552.15,1566.81"/>
        <lane id=":2967727753_0_1" index="1" speed="13.89" length="4.73" shape="1554.30,1569.11 1553.20,1563.68"/>
        <lane id=":2967727753_0_2" index="2" speed="13.89" length="4.73" shape="1555.01,1565.88 1554.25,1560.55"/>
    </edge>
    <edge id=":2967727754_0" function="internal">
        <lane id=":2967727754_0_0" index="0" allow="bus" speed="13.89" length="3.47" shape="2028.50,1738.21 2027.57,1737.97 2026.83,1738.20 2026.09,1738.43 2025.16,1738.21"/>
        <lane id=":2967727754_0_1" index="1" speed="13.89" length="3.47" shape="2028.50,1738.21 2026.75,1735.32"/>
        <lane id=":2967727754_0_2" index="2" speed="13.89" length="3.47" shape="2030.16,1735.37 2029.46,1734.66 2029.26,1733.89 2029.06,1733.12 2028.34,1732.43"/>
    </edge>
    <edge id=":2999675774_0" function="internal">
        <lane id=":2999675774_0_0" index="0" speed="13.89" length="4.57" shape="1565.83,575.91 1565.00,575.36 1564.55,574.51 1564.47,573.36 1564.75,571.92"/>
    </edge>
    <edge id=":2999675774_1" function="internal">
        <lane id=":2999675774_1_0" index="0" speed="13.89" length="6.17" shape="1561.63,577.08 1561.83,575.29 1561.58,574.02 1561.34,572.75 1561.59,570.98"/>
    </edge>
    <edge id=":3280711610_0" function="internal">
        <lane id=":3280711610_0_0" index="0" speed="13.89" length="3.23" shape="994.97,1384.49 998.05,1384.91"/>
        <lane id=":3280711610_0_1" index="1" speed="13.89" length="3.23" shape="994.97,1384.49 996.02,1387.51"/>
        <lane id=":3280711610_0_2" index="2" speed="13.89" length="3.23" shape="992.78,1386.96 993.99,1390.11"/>
    </edge>
    <edge id=":3280755054_0" function="internal">
        <lane id=":3280755054_0_0" index="0" speed="13.89" length="0.26" shape="471.12,1249.47 470.78,1249.45"/>
        <lane id=":3280755054_0_1" index="1" speed="13.89" length="0.26" shape="471.24,1246.18 471.06,1246.16"/>
    </edge>
    <edge id=":35500821_0" function="internal">
        <lane id=":35500821_0_0" index="0" speed="13.89" length="1.67" shape="1317.94,1551.63 1318.24,1549.98"/>
    </edge>
    <edge id=":3568740294_0" function="internal">
        <lane id=":3568740294_0_0" index="0" speed="13.89" length="0.10" shape="1535.69,1527.70 1535.69,1527.70"/>
    </edge>
    <edge id=":3568740295_0" function="internal">
        <lane id=":3568740295_0_0" index="0" allow="bus bicycle" speed="13.89" length="1.73" shape="1503.53,1543.69 1504.38,1543.61 1504.98,1543.60 1505.56,1543.69 1506.40,1543.89"/>
        <lane id=":3568740295_0_1" index="1" speed="13.89" length="1.73" shape="1503.88,1546.97 1504.39,1546.92 1504.75,1546.92 1505.10,1546.97 1505.60,1547.09"/>
        <lane id=":3568740295_0_2" index="2" speed="13.89" length="1.73" shape="1504.24,1550.25 1504.40,1550.24 1504.52,1550.24 1504.63,1550.25 1504.80,1550.29"/>
    </edge>
    <edge id=":366398609_0" function="internal">
        <lane id=":366398609_0_0" index="0" speed="13.89" length="3.48" shape="1224.13,963.89 1224.21,962.96 1223.85,962.29 1223.48,961.61 1223.51,960.66"/>
        <lane id=":366398609_0_1" index="1" speed="13.89" length="3.48" shape="1227.22,965.05 1227.31,964.08 1226.97,963.37 1226.60,962.67 1226.65,961.68"/>
    </edge>
    <edge id=":366398629_0" function="internal">
        <lane id=":366398629_0_0" index="0" speed="13.89" length="7.29" shape="1210.94,1095.06 1213.00,1095.66 1214.85,1095.81 1216.50,1095.52 1217.94,1094.78"/>
    </edge>
    <edge id=":366398629_1" function="internal">
        <lane id=":366398629_1_0" index="0" speed="13.89" length="7.45" shape="1212.03,1099.44 1217.94,1094.78"/>
        <lane id=":366398629_1_1" index="1" speed="13.89" length="7.45" shape="1214.07,1102.03 1219.86,1097.46"/>
    </edge>
    <edge id=":366493180_0" function="internal">
        <lane id=":366493180_0_0" index="0" allow="emergency tram" speed="13.89" length="35.47" shape="1202.67,1120.59 1197.68,1125.34 1190.71,1133.59 1184.14,1142.20 1180.37,1148.03"/>
    </edge>
    <edge id=":366493180_1" function="internal">
        <lane id=":366493180_1_0" index="0" speed="13.89" length="38.16" shape="1192.20,1111.68 1187.02,1149.40"/>
        <lane id=":366493180_1_1" index="1" speed="13.89" length="38.16" shape="1188.95,1111.16 1183.72,1149.05"/>
    </edge>
    <edge id=":366493180_3" function="internal">
        <lane id=":366493180_3_0" index="0" disallow="tram" speed="13.89" length="38.32" shape="1173.56,1144.55 1195.71,1113.05"/>
        <lane id=":366493180_3_1" index="1" disallow="tram" speed="13.89" length="38.32" shape="1176.54,1146.07 1198.46,1114.88"/>
    </edge>
    <edge id=":366493180_5" function="internal">
        <lane id=":366493180_5_0" index="0" allow="emergency tram" speed="13.89" length="37.25" shape="1177.43,1146.53 1181.39,1140.49 1188.38,1131.43 1195.77,1122.73 1200.96,1117.78"/>
    </edge>
    <edge id=":366493184_0" function="internal">
        <lane id=":366493184_0_0" index="0" speed="13.89" length="16.91" shape="1191.28,1160.45 1187.93,1164.07 1185.53,1166.48 1183.37,1169.06 1180.74,1173.20"/>
        <lane id=":366493184_0_1" index="1" speed="13.89" length="16.91" shape="1188.78,1158.29 1185.31,1162.06 1182.83,1164.57 1180.60,1167.26 1177.88,1171.55"/>
    </edge>
    <edge id=":366493184_2" function="internal">
        <lane id=":366493184_2_0" index="0" speed="13.89" length="16.95" shape="1185.38,1156.55 1184.41,1161.64 1183.92,1165.21 1183.00,1168.61 1180.74,1173.20"/>
        <lane id=":366493184_2_1" index="1" speed="13.89" length="16.95" shape="1182.17,1155.78 1181.27,1160.60 1180.83,1163.99 1180.00,1167.22 1177.88,1171.55"/>
    </edge>
    <edge id=":366493186_0" function="internal">
        <lane id=":366493186_0_0" index="0" speed="13.89" length="6.17" shape="1422.18,983.33 1427.60,980.42"/>
        <lane id=":366493186_0_1" index="1" speed="13.89" length="6.17" shape="1423.72,986.25 1429.18,983.32"/>
    </edge>
    <edge id=":366493186_2" function="internal">
        <lane id=":366493186_2_0" index="0" speed="13.89" length="5.02" shape="1423.72,986.25 1425.02,985.78 1426.15,985.84 1427.11,986.44 1427.90,987.57"/>
    </edge>
    <edge id=":366497403_0" function="internal">
        <lane id=":366497403_0_0" index="0" speed="13.89" length="16.97" shape="1152.03,1536.27 1146.85,1534.81 1142.64,1534.59 1138.99,1535.21 1135.48,1536.28"/>
    </edge>
    <edge id=":366497403_1" function="internal">
        <lane id=":366497403_1_0" index="0" allow="bus" speed="13.89" length="14.09" shape="1153.21,1533.19 1148.34,1532.61 1144.50,1533.70 1141.02,1534.25 1137.21,1532.06"/>
        <lane id=":366497403_1_1" index="1" speed="13.89" length="14.09" shape="1153.21,1533.19 1149.00,1532.30 1145.77,1532.42 1142.85,1532.06 1139.58,1529.75"/>
        <lane id=":366497403_1_2" index="2" speed="13.89" length="14.09" shape="1153.21,1533.19 1149.58,1531.98 1147.02,1531.17 1144.73,1529.94 1141.94,1527.45"/>
        <lane id=":366497403_1_3" index="3" speed="13.89" length="14.09" shape="1153.21,1533.19 1150.05,1531.63 1148.23,1529.98 1146.68,1527.92 1144.31,1525.15"/>
    </edge>
    <edge id=":366497418_0" function="internal">
        <lane id=":366497418_0_0" index="0" allow="bus" speed="13.89" length="5.96" shape="1116.16,1549.91 1115.62,1550.92 1115.32,1551.66 1115.19,1552.44 1115.13,1553.58"/>
        <lane id=":366497418_0_1" index="1" speed="13.89" length="5.96" shape="1116.16,1549.91 1111.84,1553.50"/>
        <lane id=":366497418_0_2" index="2" speed="13.89" length="5.96" shape="1116.16,1549.91 1108.54,1553.41"/>
    </edge>
    <edge id=":366497418_3" function="internal">
        <lane id=":366497418_3_0" index="0" speed="13.89" length="8.28" shape="1111.89,1544.94 1111.84,1553.50"/>
        <lane id=":366497418_3_1" index="1" speed="13.89" length="8.28" shape="1108.60,1545.14 1108.54,1553.41"/>