<?xml version="1.0" encoding="UTF-8"?>

<!-- generated on 2018. okt. 20., szombat, 19:28:51 CEST by Netedit Version 0.32.0
<?xml version="1.0" encoding="UTF-8"?>

<configuration xmlns:xsi="http://www.w3.org/2001/XMLSchema-instance" xsi:noNamespaceSchemaLocation="http://sumo.dlr.de/xsd/netconvertConfiguration.xsd">

    <input>
        <sumo-net-file value="/home/levente/Egyetem/7_felev/szakdoga/BAH/BAH0_smart.net.xml"/>
    </input>

    <output>
        <output-file value="/home/levente/Egyetem/7_felev/szakdoga/BAH/BAH0_smart.net.xml"/>
    </output>

    <processing>
        <no-turnarounds value="true"/>
        <offset.disable-normalization value="true"/>
        <lefthand value="false"/>
        <junctions.corner-detail value="0"/>
        <rectangular-lane-cut value="false"/>
        <walkingareas value="false"/>
    </processing>

</configuration>
-->

<net version="0.27" xmlns:xsi="http://www.w3.org/2001/XMLSchema-instance" xsi:noNamespaceSchemaLocation="http://sumo.dlr.de/xsd/net_file.xsd">

    <location netOffset="-350103.16,-5259759.21" convBoundary="0.00,0.00,2512.54,2281.08" origBoundary="18.999424,47.471201,19.045565,47.498737" projParameter="+proj=utm +zone=34 +ellps=WGS84 +datum=WGS84 +units=m +no_defs"/>

    <type id="highway.motorway" speed="27.78"/>
    <type id="highway.motorway_link" speed="16.67"/>
    <type id="highway.primary" speed="13.89"/>
    <type id="highway.primary_link" speed="13.89"/>
    <type id="highway.secondary" speed="13.89"/>
    <type id="highway.secondary_link" speed="13.89"/>
    <type id="highway.tertiary" speed="13.89"/>
    <type id="highway.tertiary_link" speed="13.89"/>
    <type id="highway.trunk" speed="13.89"/>
    <type id="highway.trunk_link" speed="13.89"/>

    <edge id=":1031047959_0" function="internal">
        <lane id=":1031047959_0_0" index="0" speed="13.89" length="0.10" shape="1215.07,587.96 1215.10,588.05"/>
        <lane id=":1031047959_0_1" index="1" speed="13.89" length="0.10" shape="1211.93,588.96 1211.90,588.87"/>
    </edge>
    <edge id=":1031047995_0" function="internal">
        <lane id=":1031047995_0_0" index="0" speed="13.89" length="0.29" shape="1188.82,524.91 1188.95,525.15"/>
        <lane id=":1031047995_0_1" index="1" speed="13.89" length="0.29" shape="1185.88,526.41 1186.03,526.69"/>
    </edge>
    <edge id=":1244421446_0" function="internal">
        <lane id=":1244421446_0_0" index="0" speed="13.89" length="1.78" shape="1476.29,926.75 1476.25,927.00 1476.24,927.18 1476.28,927.36 1476.36,927.60"/>
        <lane id=":1244421446_0_1" index="1" speed="13.89" length="1.78" shape="1473.05,926.12 1472.92,926.90 1472.89,927.45 1473.00,927.99 1473.26,928.74"/>
    </edge>
    <edge id=":16729618_0" function="internal">
        <lane id=":16729618_0_0" index="0" speed="13.89" length="0.25" shape="1192.30,531.51 1192.44,531.80"/>
        <lane id=":16729618_0_1" index="1" speed="13.89" length="0.25" shape="1189.38,533.05 1189.46,533.21"/>
    </edge>
    <edge id=":16729625_0" function="internal">
        <lane id=":16729625_0_0" index="0" speed="13.89" length="0.10" shape="1195.62,1155.41 1195.56,1155.48"/>
        <lane id=":16729625_0_1" index="1" speed="13.89" length="0.10" shape="1193.00,1153.39 1193.06,1153.32"/>
    </edge>
    <edge id=":16729626_0" function="internal">
        <lane id=":16729626_0_0" index="0" speed="13.89" length="0.28" shape="1253.38,1099.05 1253.35,1099.07 1253.32,1099.09 1253.30,1099.10 1253.26,1099.12"/>
        <lane id=":16729626_0_1" index="1" speed="13.89" length="0.28" shape="1251.85,1096.13 1251.73,1096.19 1251.66,1096.24 1251.58,1096.28 1251.48,1096.35"/>
    </edge>
    <edge id=":1676318007_0" function="internal">
        <lane id=":1676318007_0_0" index="0" allow="bus bicycle" speed="13.89" length="3.53" shape="1910.64,1658.62 1911.61,1658.82 1912.37,1658.56 1913.12,1658.32 1914.08,1658.53"/>
        <lane id=":1676318007_0_1" index="1" speed="13.89" length="3.53" shape="1910.64,1658.62 1911.37,1659.27 1911.60,1660.02 1911.82,1660.78 1912.55,1661.45"/>
        <lane id=":1676318007_0_2" index="2" speed="13.89" length="3.53" shape="1909.16,1661.57 1909.88,1662.22 1910.09,1662.96 1910.30,1663.71 1911.01,1664.37"/>
    </edge>
    <edge id=":1676318032_0" function="internal">
        <lane id=":1676318032_0_0" index="0" speed="13.89" length="3.55" shape="1983.41,1711.41 1982.46,1711.18 1981.71,1711.42 1980.97,1711.67 1980.01,1711.45"/>
        <lane id=":1676318032_0_1" index="1" speed="13.89" length="3.55" shape="1985.00,1708.52 1984.04,1708.29 1983.28,1708.52 1982.52,1708.75 1981.55,1708.53"/>
    </edge>
    <edge id=":1686008392_0" function="internal">
        <lane id=":1686008392_0_0" index="0" speed="13.89" length="0.25" shape="1742.49,1601.45 1742.19,1601.41"/>
        <lane id=":1686008392_0_1" index="1" speed="13.89" length="0.25" shape="1742.88,1598.18 1742.68,1598.15"/>
    </edge>
    <edge id=":1740676620_0" function="internal">
        <lane id=":1740676620_0_0" index="0" allow="bus" speed="13.89" length="3.21" shape="1606.03,1580.62 1602.57,1583.31"/>
        <lane id=":1740676620_0_1" index="1" speed="13.89" length="3.21" shape="1606.03,1580.62 1603.32,1580.10"/>
        <lane id=":1740676620_0_2" index="2" speed="13.89" length="3.21" shape="1606.52,1577.35 1604.06,1576.88"/>
    </edge>
    <edge id=":1770588017_0" function="internal">
        <lane id=":1770588017_0_0" index="0" allow="bus" speed="11.95" length="0.37" shape="1040.01,1468.46 1039.57,1468.24"/>
        <lane id=":1770588017_0_1" index="1" speed="11.95" length="0.37" shape="1041.45,1465.49 1041.12,1465.32"/>
        <lane id=":1770588017_0_2" index="2" speed="11.95" length="0.37" shape="1042.88,1462.52 1042.66,1462.41"/>
    </edge>
    <edge id=":1812612005_0" function="internal">
        <lane id=":1812612005_0_0" index="0" speed="13.89" length="0.33" shape="1154.20,451.89 1154.27,452.02 1154.32,452.11 1154.37,452.20 1154.43,452.33"/>
        <lane id=":1812612005_0_1" index="1" speed="13.89" length="0.33" shape="1151.35,453.57 1151.38,453.61 1151.40,453.64 1151.41,453.67 1151.43,453.71"/>
    </edge>
    <edge id=":1812612006_0" function="internal">
        <lane id=":1812612006_0_0" index="0" speed="13.89" length="0.25" shape="1178.44,504.60 1178.52,504.76"/>
        <lane id=":1812612006_0_1" index="1" speed="13.89" length="0.25" shape="1175.44,505.98 1175.58,506.26"/>
    </edge>
    <edge id=":1812612017_0" function="internal">
        <lane id=":1812612017_0_0" index="0" speed="13.89" length="0.24" shape="1183.88,547.68 1183.81,547.51"/>
        <lane id=":1812612017_0_1" index="1" speed="13.89" length="0.24" shape="1186.93,546.42 1186.81,546.15"/>
    </edge>
    <edge id=":1812770577_0" function="internal">
        <lane id=":1812770577_0_0" index="0" allow="bus" speed="13.89" length="0.58" shape="1112.28,1736.06 1112.26,1736.84"/>
        <lane id=":1812770577_0_1" index="1" speed="13.89" length="0.58" shape="1108.98,1736.06 1108.97,1736.71"/>
        <lane id=":1812770577_0_2" index="2" speed="13.89" length="0.58" shape="1105.68,1736.06 1105.67,1736.57"/>
        <lane id=":1812770577_0_3" index="3" speed="13.89" length="0.58" shape="1102.38,1736.06 1102.37,1736.43"/>
    </edge>
    <edge id=":1812770605_0" function="internal">
        <lane id=":1812770605_0_0" index="0" speed="13.89" length="3.55" shape="1079.15,1784.45 1079.00,1783.49 1078.50,1782.89 1077.99,1782.29 1077.82,1781.33"/>
        <lane id=":1812770605_0_1" index="1" speed="13.89" length="3.55" shape="1082.43,1784.82 1082.28,1783.85 1081.78,1783.24 1081.27,1782.64 1081.11,1781.66"/>
        <lane id=":1812770605_0_2" index="2" speed="13.89" length="3.55" shape="1085.71,1785.20 1085.56,1784.21 1085.06,1783.60 1084.55,1782.98 1084.39,1781.99"/>
    </edge>
    <edge id=":1812783898_0" function="internal">
        <lane id=":1812783898_0_0" index="0" speed="13.89" length="4.17" shape="1075.35,1557.01 1071.92,1554.62"/>
        <lane id=":1812783898_0_1" index="1" speed="13.89" length="4.17" shape="1078.65,1556.92 1075.21,1554.37"/>
        <lane id=":1812783898_0_2" index="2" speed="13.89" length="4.17" shape="1081.95,1556.83 1078.51,1554.12"/>
        <lane id=":1812783898_0_3" index="3" speed="13.89" length="4.17" shape="1085.25,1556.73 1081.80,1553.87"/>
        <lane id=":1812783898_0_4" index="4" speed="13.89" length="4.17" shape="1085.25,1556.73 1085.09,1553.62"/>
        <lane id=":1812783898_0_5" index="5" speed="13.89" length="4.17" shape="1085.25,1556.73 1088.38,1553.37"/>
    </edge>
    <edge id=":1812783899_0" function="internal">
        <lane id=":1812783899_0_0" index="0" speed="13.89" length="3.49" shape="1079.34,1641.50 1079.08,1640.59 1078.50,1640.07 1077.92,1639.56 1077.64,1638.64"/>
        <lane id=":1812783899_0_1" index="1" speed="13.89" length="3.49" shape="1079.34,1641.50 1080.94,1638.55"/>
        <lane id=":1812783899_0_2" index="2" speed="13.89" length="3.49" shape="1082.64,1641.48 1082.89,1640.53 1083.45,1639.97 1084.01,1639.41 1084.24,1638.46"/>
        <lane id=":1812783899_0_3" index="3" speed="13.89" length="3.49" shape="1085.94,1641.45 1086.19,1640.48 1086.75,1639.91 1087.31,1639.33 1087.54,1638.36"/>
    </edge>
    <edge id=":1813149934_0" function="internal">
        <lane id=":1813149934_0_0" index="0" speed="9.45" length="0.30" shape="984.84,1371.46 984.87,1371.49 984.89,1371.51 984.92,1371.53 984.95,1371.56"/>
        <lane id=":1813149934_0_1" index="1" speed="9.45" length="0.30" shape="982.65,1373.94 982.76,1374.03 982.83,1374.09 982.90,1374.14 983.01,1374.22"/>
    </edge>
    <edge id=":2077691374_0" function="internal">
        <lane id=":2077691374_0_0" index="0" speed="13.89" length="3.48" shape="1065.29,1896.96 1065.09,1895.97 1064.56,1895.36 1064.04,1894.75 1063.87,1893.76"/>
        <lane id=":2077691374_0_1" index="1" speed="13.89" length="3.48" shape="1065.29,1896.96 1065.60,1896.02 1066.20,1895.51 1066.81,1894.99 1067.16,1894.06"/>
        <lane id=":2077691374_0_2" index="2" speed="13.89" length="3.48" shape="1068.59,1897.14 1068.90,1896.23 1069.50,1895.74 1070.10,1895.25 1070.44,1894.35"/>
        <lane id=":2077691374_0_3" index="3" speed="13.89" length="3.48" shape="1071.88,1897.32 1073.73,1894.64"/>
    </edge>
    <edge id=":245291214_0" function="internal">
        <lane id=":245291214_0_0" index="0" speed="13.89" length="4.49" shape="576.78,1251.24 573.14,1255.15"/>
        <lane id=":245291214_0_1" index="1" speed="13.89" length="4.49" shape="576.78,1251.24 575.78,1251.62 575.06,1251.82 574.32,1251.88 573.25,1251.85"/>
    </edge>
    <edge id=":263261471_0" function="internal">
        <lane id=":263261471_0_0" index="0" speed="11.95" length="0.66" shape="1111.31,1438.58 1111.32,1438.70"/>
        <lane id=":263261471_0_1" index="1" speed="11.95" length="0.66" shape="1108.01,1438.57 1108.03,1438.97"/>
        <lane id=":263261471_0_2" index="2" speed="11.95" length="0.66" shape="1104.71,1438.57 1104.74,1439.23"/>
        <lane id=":263261471_0_3" index="3" speed="11.95" length="0.66" shape="1101.41,1438.57 1101.45,1439.49"/>
        <lane id=":263261471_0_4" index="4" speed="11.95" length="0.66" shape="1098.11,1438.57 1098.16,1439.75"/>
    </edge>
    <edge id=":263261472_0" function="internal">
        <lane id=":263261472_0_0" index="0" speed="13.89" length="3.76" shape="1107.85,1351.58 1111.05,1353.45"/>
        <lane id=":263261472_0_1" index="1" speed="13.89" length="3.76" shape="1104.57,1351.21 1107.75,1353.47"/>
        <lane id=":263261472_0_2" index="2" speed="13.89" length="3.76" shape="1101.29,1350.84 1104.45,1353.50"/>
        <lane id=":263261472_0_3" index="3" speed="13.89" length="3.76" shape="1101.29,1350.84 1101.20,1351.63 1101.16,1352.18 1101.15,1352.72 1101.15,1353.52"/>
        <lane id=":263261472_0_4" index="4" speed="13.89" length="3.76" shape="1101.29,1350.84 1097.85,1353.54"/>
    </edge>
    <edge id=":263261819_0" function="internal">
        <lane id=":263261819_0_0" index="0" speed="13.89" length="7.31" shape="1070.72,1539.71 1070.41,1537.58 1069.93,1536.19 1069.26,1534.83 1068.39,1532.84"/>
    </edge>
    <edge id=":263261819_1" function="internal">
        <lane id=":263261819_1_0" index="0" speed="13.89" length="9.42" shape="1074.01,1539.43 1073.50,1536.77 1072.71,1535.03 1071.91,1533.30 1071.33,1530.64"/>
        <lane id=":263261819_1_1" index="1" speed="13.89" length="9.42" shape="1077.29,1539.16 1076.78,1536.47 1076.00,1534.72 1075.19,1532.96 1074.61,1530.28"/>
        <lane id=":263261819_1_2" index="2" speed="13.89" length="9.42" shape="1080.58,1538.89 1080.07,1536.17 1079.28,1534.40 1078.47,1532.63 1077.89,1529.92"/>
        <lane id=":263261819_1_3" index="3" speed="13.89" length="9.42" shape="1083.87,1538.62 1083.36,1535.87 1082.57,1534.08 1081.76,1532.29 1081.17,1529.56"/>
        <lane id=":263261819_1_4" index="4" speed="13.89" length="9.42" shape="1087.16,1538.34 1086.64,1535.57 1085.85,1533.76 1085.04,1531.95 1084.45,1529.19"/>
    </edge>
    <edge id=":263261824_0" function="internal">
        <lane id=":263261824_0_0" index="0" speed="13.89" length="0.63" shape="1169.15,1150.66 1169.28,1150.40 1169.37,1150.23 1169.47,1150.07 1169.64,1149.85"/>
        <lane id=":263261824_0_1" index="1" speed="13.89" length="0.63" shape="1172.13,1152.07 1172.17,1151.99 1172.20,1151.93 1172.24,1151.88 1172.29,1151.81"/>
    </edge>
    <edge id=":263261830_0" function="internal">
        <lane id=":263261830_0_0" index="0" speed="13.89" length="8.49" shape="1197.43,1079.96 1197.05,1081.76 1197.35,1083.63 1198.32,1085.56 1199.97,1087.57"/>
    </edge>
    <edge id=":263261830_1" function="internal">
        <lane id=":263261830_1_0" index="0" speed="13.89" length="9.04" shape="1197.43,1079.96 1196.60,1082.37 1196.30,1084.10 1196.17,1085.88 1195.88,1088.44"/>
        <lane id=":263261830_1_1" index="1" speed="13.89" length="9.04" shape="1194.38,1078.72 1193.46,1081.34 1193.11,1083.21 1192.95,1085.14 1192.62,1087.93"/>
    </edge>
    <edge id=":263271811_0" function="internal">
        <lane id=":263271811_0_0" index="0" allow="bus" speed="13.89" length="2.98" shape="1347.74,1543.76 1350.60,1544.31"/>
        <lane id=":263271811_0_1" index="1" speed="13.89" length="2.98" shape="1347.36,1547.04 1350.35,1547.60"/>
    </edge>
    <edge id=":263271811_2" function="internal">
        <lane id=":263271811_2_0" index="0" speed="13.89" length="9.40" shape="1340.73,1550.29 1350.11,1550.89"/>
    </edge>
    <edge id=":263274078_0" function="internal">
        <lane id=":263274078_0_0" index="0" speed="13.89" length="61.93" shape="1385.40,1561.40 1372.98,1561.81 1354.63,1563.23 1336.29,1564.90 1323.87,1566.02"/>
        <lane id=":263274078_0_1" index="1" speed="13.89" length="61.93" shape="1385.57,1558.11 1373.08,1558.51 1354.58,1559.94 1336.09,1561.61 1323.61,1562.73"/>
    </edge>
    <edge id=":263274078_2" function="internal">
        <lane id=":263274078_2_0" index="0" speed="13.89" length="62.05" shape="1385.57,1558.11 1323.54,1559.37"/>
    </edge>
    <edge id=":263275825_0" function="internal">
        <lane id=":263275825_0_0" index="0" speed="11.95" length="18.32" shape="1014.55,1451.26 1009.09,1448.85 1004.58,1447.59 1000.68,1446.88 997.06,1446.09"/>
    </edge>
    <edge id=":263275825_1" function="internal">
        <lane id=":263275825_1_0" index="0" speed="11.95" length="9.93" shape="1016.09,1448.34 1013.54,1446.88 1011.90,1445.71 1010.35,1444.40 1008.04,1442.56"/>
    </edge>
    <edge id=":263276777_0" function="internal">
        <lane id=":263276777_0_0" index="0" speed="13.89" length="10.26" shape="1006.88,1384.90 1009.65,1386.11 1011.90,1386.24 1014.10,1386.42 1016.76,1387.80"/>
        <lane id=":263276777_0_1" index="1" speed="13.89" length="10.26" shape="1005.04,1387.65 1007.77,1388.82 1009.97,1388.92 1012.13,1389.07 1014.73,1390.41"/>
        <lane id=":263276777_0_2" index="2" speed="13.89" length="10.26" shape="1003.21,1390.39 1005.88,1391.53 1008.04,1391.59 1010.16,1391.71 1012.71,1393.01"/>
    </edge>
    <edge id=":263276777_3" function="internal">
        <lane id=":263276777_3_0" index="0" speed="10.95" length="9.24" shape="1002.22,1395.73 1004.32,1394.44 1006.43,1393.99 1008.55,1394.38 1010.68,1395.62"/>
    </edge>
    <edge id=":263276777_4" function="internal">
        <lane id=":263276777_4_0" index="0" speed="10.95" length="4.74" shape="1004.32,1398.28 1005.39,1397.62 1006.48,1397.39 1007.57,1397.59 1008.66,1398.23"/>
    </edge>
    <edge id=":263300995_0" function="internal">
        <lane id=":263300995_0_0" index="0" speed="13.89" length="0.54" shape="1080.19,1757.89 1080.19,1757.84 1080.20,1757.80 1080.20,1757.77 1080.20,1757.72"/>
        <lane id=":263300995_0_1" index="1" speed="13.89" length="0.54" shape="1083.47,1758.23 1083.49,1758.07 1083.50,1757.96 1083.50,1757.85 1083.50,1757.69"/>
        <lane id=":263300995_0_2" index="2" speed="13.89" length="0.54" shape="1086.76,1758.56 1086.78,1758.30 1086.80,1758.12 1086.80,1757.93 1086.80,1757.67"/>
    </edge>
    <edge id=":268258426_0" function="internal">
        <lane id=":268258426_0_0" index="0" speed="13.89" length="1.76" shape="1948.62,642.80 1948.97,641.07"/>
    </edge>
    <edge id=":268258426_3" function="internal">
        <lane id=":268258426_3_0" index="0" speed="13.89" length="8.53" shape="1948.97,641.07 1950.09,639.16 1951.97,637.06 1954.62,634.78"/>
    </edge>
    <edge id=":268258426_1" function="internal">
        <lane id=":268258426_1_0" index="0" speed="13.89" length="11.65" shape="1944.91,641.20 1947.72,639.60 1949.93,638.23 1952.06,636.74 1954.62,634.78"/>
    </edge>
    <edge id=":268258426_2" function="internal">
        <lane id=":268258426_2_0" index="0" speed="13.89" length="10.31" shape="1944.91,641.20 1948.12,639.60 1950.80,638.69 1952.97,638.46 1954.63,638.91"/>
    </edge>
    <edge id=":268282362_0" function="internal">
        <lane id=":268282362_0_0" index="0" speed="13.89" length="0.29" shape="1593.39,521.95 1593.32,522.21"/>
        <lane id=":268282362_0_1" index="1" speed="13.89" length="0.29" shape="1590.21,521.07 1590.13,521.37"/>
    </edge>
    <edge id=":268282367_0" function="internal">
        <lane id=":268282367_0_0" index="0" speed="13.89" length="6.23" shape="1579.00,576.91 1577.33,582.92"/>
        <lane id=":268282367_0_1" index="1" speed="13.89" length="6.23" shape="1575.81,576.04 1574.15,582.03"/>
    </edge>
    <edge id=":268282367_2" function="internal">
        <lane id=":268282367_2_0" index="0" speed="13.89" length="5.05" shape="1575.81,576.04 1575.27,577.28 1574.44,578.06 1573.33,578.38 1571.94,578.24"/>
    </edge>
    <edge id=":268372293_0" function="internal">
        <lane id=":268372293_0_0" index="0" speed="13.89" length="0.34" shape="1436.13,1002.83 1436.01,1002.91 1435.92,1002.97 1435.83,1003.02 1435.70,1003.09"/>
        <lane id=":268372293_0_1" index="1" speed="13.89" length="0.34" shape="1434.30,1000.08 1434.26,1000.11 1434.24,1000.13 1434.21,1000.15 1434.16,1000.17"/>
    </edge>
    <edge id=":268386478_0" function="internal">
        <lane id=":268386478_0_0" index="0" speed="13.89" length="2.86" shape="1244.85,934.25 1246.03,937.08"/>
        <lane id=":268386478_0_1" index="1" speed="13.89" length="2.86" shape="1244.85,934.25 1242.82,936.33"/>
        <lane id=":268386478_0_2" index="2" speed="13.89" length="2.86" shape="1241.57,933.88 1239.60,935.58"/>
    </edge>
    <edge id=":268639223_0" function="internal">
        <lane id=":268639223_0_0" index="0" speed="13.89" length="0.28" shape="529.72,1253.74 529.40,1253.73"/>
        <lane id=":268639223_0_1" index="1" speed="13.89" length="0.28" shape="529.82,1250.45 529.57,1250.43"/>
    </edge>
    <edge id=":268701639_0" function="internal">
        <lane id=":268701639_0_0" index="0" speed="13.89" length="3.26" shape="1110.80,1318.02 1111.96,1320.94"/>
        <lane id=":268701639_0_1" index="1" speed="13.89" length="3.26" shape="1110.80,1318.02 1108.69,1320.46"/>
        <lane id=":268701639_0_2" index="2" speed="13.89" length="3.26" shape="1107.57,1317.34 1105.43,1319.97"/>
    </edge>
    <edge id=":268702621_0" function="internal">
        <lane id=":268702621_0_0" index="0" speed="13.89" length="0.23" shape="988.50,1427.47 988.32,1427.24"/>
        <lane id=":268702621_0_1" index="1" speed="13.89" length="0.23" shape="991.04,1425.37 990.94,1425.23"/>
    </edge>
    <edge id=":278946183_0" function="internal">
        <lane id=":278946183_0_0" index="0" speed="13.89" length="3.52" shape="1490.19,844.17 1490.23,843.20 1489.84,842.52 1489.45,841.83 1489.45,840.85"/>
    </edge>
    <edge id=":2954238137_0" function="internal">
        <lane id=":2954238137_0_0" index="0" speed="13.89" length="0.25" shape="1504.33,1558.85 1504.01,1558.92"/>
        <lane id=":2954238137_0_1" index="1" speed="13.89" length="0.25" shape="1503.60,1555.63 1503.42,1555.67"/>
    </edge>
    <edge id=":2960776070_0" function="internal">
        <lane id=":2960776070_0_0" index="0" speed="13.89" length="0.34" shape="1066.44,1864.89 1066.51,1864.30"/>
        <lane id=":2960776070_0_1" index="1" speed="13.89" length="0.34" shape="1069.73,1865.18 1069.78,1864.76"/>
        <lane id=":2960776070_0_2" index="2" speed="13.89" length="0.34" shape="1073.02,1865.47 1073.05,1865.22"/>
        <lane id=":2960776070_0_3" index="3" speed="13.89" length="0.34" shape="1076.31,1865.77 1076.31,1865.69"/>
    </edge>
    <edge id=":2967727753_0" function="internal">
        <lane id=":2967727753_0_0" index="0" speed="13.89" length="3.54" shape="1555.10,1566.04 1554.11,1565.99 1553.40,1566.36 1552.70,1566.72 1551.71,1566.66"/>
        <lane id=":2967727753_0_1" index="1" speed="13.89" length="3.54" shape="1555.10,1566.04 1554.27,1565.50 1553.93,1564.79 1553.58,1564.08 1552.76,1563.53"/>
        <lane id=":2967727753_0_2" index="2" speed="13.89" length="3.54" shape="1556.11,1562.90 1555.30,1562.36 1554.96,1561.66 1554.62,1560.95 1553.82,1560.41"/>
    </edge>
    <edge id=":2967727754_0" function="internal">
        <lane id=":2967727754_0_0" index="0" allow="bus" speed="13.89" length="3.47" shape="2028.50,1738.21 2027.57,1737.97 2026.83,1738.20 2026.09,1738.43 2025.16,1738.21"/>
        <lane id=":2967727754_0_1" index="1" speed="13.89" length="3.47" shape="2028.50,1738.21 2026.75,1735.32"/>
        <lane id=":2967727754_0_2" index="2" speed="13.89" length="3.47" shape="2030.16,1735.37 2029.46,1734.66 2029.26,1733.89 2029.06,1733.12 2028.34,1732.43"/>
    </edge>
    <edge id=":2999675774_0" function="internal">
        <lane id=":2999675774_0_0" index="0" speed="13.89" length="4.57" shape="1565.83,575.91 1565.00,575.36 1564.55,574.51 1564.47,573.36 1564.75,571.92"/>
    </edge>
    <edge id=":2999675774_1" function="internal">
        <lane id=":2999675774_1_0" index="0" speed="13.89" length="6.17" shape="1561.63,577.08 1561.83,575.29 1561.58,574.02 1561.34,572.75 1561.59,570.98"/>
    </edge>
    <edge id=":3280711610_0" function="internal">
        <lane id=":3280711610_0_0" index="0" speed="9.45" length="3.31" shape="995.46,1379.24 998.67,1379.46"/>
        <lane id=":3280711610_0_1" index="1" speed="9.45" length="3.31" shape="995.46,1379.24 996.85,1382.21"/>
        <lane id=":3280711610_0_2" index="2" speed="9.45" length="3.31" shape="993.51,1381.90 995.03,1384.97"/>
    </edge>
    <edge id=":3280755054_0" function="internal">
        <lane id=":3280755054_0_0" index="0" speed="13.89" length="0.26" shape="471.12,1249.47 470.78,1249.45"/>
        <lane id=":3280755054_0_1" index="1" speed="13.89" length="0.26" shape="471.24,1246.18 471.06,1246.16"/>
    </edge>
    <edge id=":35500821_0" function="internal">
        <lane id=":35500821_0_0" index="0" speed="11.95" length="1.67" shape="1317.94,1551.63 1318.24,1549.98"/>
    </edge>
    <edge id=":3568740294_0" function="internal">
        <lane id=":3568740294_0_0" index="0" speed="13.89" length="0.10" shape="1535.69,1527.70 1535.69,1527.70"/>
    </edge>
    <edge id=":3568740295_0" function="internal">
        <lane id=":3568740295_0_0" index="0" speed="13.89" length="1.73" shape="1503.53,1543.69 1504.39,1543.61 1504.98,1543.60 1505.56,1543.69 1506.40,1543.89"/>
        <lane id=":3568740295_0_1" index="1" speed="13.89" length="1.73" shape="1503.88,1546.97 1504.39,1546.92 1504.75,1546.92 1505.10,1546.97 1505.60,1547.09"/>
        <lane id=":3568740295_0_2" index="2" speed="13.89" length="1.73" shape="1504.24,1550.25 1504.40,1550.24 1504.52,1550.24 1504.63,1550.25 1504.79,1550.29"/>
    </edge>
    <edge id=":366398609_0" function="internal">
        <lane id=":366398609_0_0" index="0" speed="13.89" length="3.48" shape="1224.13,963.89 1224.21,962.96 1223.85,962.29 1223.48,961.61 1223.51,960.66"/>
        <lane id=":366398609_0_1" index="1" speed="13.89" length="3.48" shape="1227.22,965.05 1227.31,964.08 1226.97,963.37 1226.60,962.67 1226.65,961.68"/>
    </edge>
    <edge id=":366398629_0" function="internal">
        <lane id=":366398629_0_0" index="0" speed="13.89" length="7.21" shape="1210.94,1095.06 1212.98,1095.66 1214.82,1095.82 1216.45,1095.54 1217.87,1094.83"/>
    </edge>
    <edge id=":366398629_1" function="internal">
        <lane id=":366398629_1_0" index="0" speed="13.89" length="7.35" shape="1212.03,1099.44 1217.87,1094.83"/>
        <lane id=":366398629_1_1" index="1" speed="13.89" length="7.35" shape="1214.07,1102.03 1219.77,1097.53"/>
    </edge>
    <edge id=":366493184_0" function="internal">
        <lane id=":366493184_0_0" index="0" speed="13.89" length="17.02" shape="1191.28,1160.45 1187.94,1164.17 1185.59,1166.67 1183.39,1169.28 1180.47,1173.33"/>
        <lane id=":366493184_0_1" index="1" speed="13.89" length="17.02" shape="1188.78,1158.29 1185.37,1162.10 1182.97,1164.66 1180.72,1167.33 1177.75,1171.47"/>
    </edge>
    <edge id=":366493184_2" function="internal">
        <lane id=":366493184_2_0" index="0" speed="13.89" length="17.11" shape="1185.38,1156.55 1184.45,1161.74 1184.01,1165.42 1183.03,1168.86 1180.47,1173.33"/>
        <lane id=":366493184_2_1" index="1" speed="13.89" length="17.11" shape="1182.17,1155.78 1181.32,1160.63 1180.97,1164.07 1180.11,1167.29 1177.75,1171.47"/>
    </edge>
    <edge id=":366493186_0" function="internal">
        <lane id=":366493186_0_0" index="0" speed="13.89" length="6.24" shape="1405.35,992.70 1410.91,989.82"/>
        <lane id=":366493186_0_1" index="1" speed="13.89" length="6.24" shape="1406.89,995.62 1412.42,992.75"/>
    </edge>
    <edge id=":366493186_2" function="internal">
        <lane id=":366493186_2_0" index="0" speed="13.89" length="4.87" shape="1406.89,995.62 1408.13,995.17 1409.25,995.21 1410.24,995.72 1411.11,996.71"/>
    </edge>
    <edge id=":366497403_0" function="internal">
        <lane id=":366497403_0_0" index="0" speed="13.89" length="11.44" shape="1139.42,1522.70 1136.34,1521.44 1133.92,1521.36 1131.47,1521.84 1128.31,1522.29"/>
    </edge>
    <edge id=":366497403_1" function="internal">
        <lane id=":366497403_1_0" index="0" allow="bus" speed="13.89" length="10.52" shape="1141.04,1519.82 1137.75,1518.94 1135.08,1519.48 1132.54,1519.83 1129.63,1518.41"/>
        <lane id=":366497403_1_1" index="1" speed="13.89" length="10.52" shape="1141.04,1519.82 1138.29,1518.64 1136.20,1518.19 1134.23,1517.58 1131.81,1515.92"/>
        <lane id=":366497403_1_2" index="2" speed="13.89" length="10.52" shape="1141.04,1519.82 1138.69,1518.28 1137.30,1516.93 1136.01,1515.43 1133.98,1513.44"/>
        <lane id=":366497403_1_3" index="3" speed="13.89" length="10.52" shape="1141.04,1519.82 1138.95,1517.86 1138.37,1515.71 1137.90,1513.40 1136.15,1510.96"/>
    </edge>
    <edge id=":366497418_0" function="internal">
        <lane id=":366497418_0_0" index="0" speed="13.89" length="4.83" shape="1116.03,1551.97 1115.44,1553.27 1115.07,1554.20 1114.88,1555.16 1114.82,1556.58"/>
    </edge>
    <edge id=":366497418_1" function="internal">
        <lane id=":366497418_1_0" index="0" speed="13.89" length="5.16" shape="1112.28,1551.30 1112.23,1552.88 1111.96,1553.94 1111.66,1555.01 1111.52,1556.58"/>
        <lane id=":366497418_1_1" index="1" speed="13.89" length="5.16" shape="1108.98,1551.50 1108.93,1553.02 1108.66,1554.04 1108.36,1555.06 1108.22,1556.58"/>
        <lane id=":366497418_1_2" index="2" speed="13.89" length="5.16" shape="1105.69,1551.70 1105.63,1553.16 1105.36,1554.14 1105.06,1555.12 1104.92,1556.58"/>
    </edge>
    <edge id=":366497427_0" function="internal">
        <lane id=":366497427_0_0" index="0" allow="bus" speed="13.89" length="6.92" shape="1057.12,1479.77 1056.12,1477.96 1055.42,1476.67 1054.48,1475.64 1052.77,1474.62"/>
    </edge>
    <edge id=":366497427_1" function="internal">
        <lane id=":366497427_1_0" index="0" speed="13.89" length="9.09" shape="1057.12,1479.77 1056.25,1477.22 1056.27,1475.04 1055.98,1473.20 1054.20,1471.65"/>
    </edge>
    <edge id=":366497427_2" function="internal">
        <lane id=":366497427_2_0" index="0" allow="bus" speed="13.89" length="7.08" shape="1060.24,1476.87 1057.96,1476.40 1056.40,1476.06 1054.88,1475.57 1052.77,1474.62"/>
        <lane id=":366497427_2_1" index="1" speed="13.89" length="7.08" shape="1060.97,1473.65 1058.90,1473.23 1057.48,1472.94 1056.11,1472.50 1054.20,1471.65"/>
        <lane id=":366497427_2_2" index="2" speed="13.89" length="7.08" shape="1061.69,1470.43 1059.84,1470.06 1058.57,1469.81 1057.35,1469.44 1055.64,1468.68"/>
    </edge>
    <edge id=":366762011_0" function="internal">
        <lane id=":366762011_0_0" index="0" speed="13.89" length="1.24" shape="1713.68,1547.41 1713.95,1547.89 1714.09,1548.24 1714.18,1548.61 1714.25,1549.16"/>
        <lane id=":366762011_0_1" index="1" speed="13.89" length="1.24" shape="1710.79,1549.00 1710.88,1549.16 1710.93,1549.27 1710.96,1549.40 1710.98,1549.57"/>
    </edge>
    <edge id=":366790407_0" function="internal">
        <lane id=":366790407_0_0" index="0" speed="13.89" length="0.70" shape="1960.57,654.59 1960.42,654.73 1960.31,654.82 1960.18,654.89 1959.99,654.96"/>
    </edge>